7

C          2.849162604    -0.102802857     3.710702125
C          3.573073353    -0.235086537     2.360977573
C          4.239398830    -0.612620691     1.043003277
C          4.750112942    -1.110205902    -0.305317797
C          5.057776883    -1.708627867    -1.671613172
C          2.647212391     0.230591491     3.471697489
C          1.546869726     0.007194922     4.500711090
7

C          1.506290249     1.832735135    -1.519919703
C          2.869636552     1.137054341    -1.523709908
C          3.331084193     0.124732698    -0.472641104
C          3.848798610    -0.806910876     0.620768866
C          4.406216620    -1.705742864     1.716631640
C          4.205729907     1.690191227    -1.042939580
C          2.933640651     2.361031492    -1.544229179
7

C          0.856812854     1.970413885    -5.227220607
C          2.107461936     1.369991616    -4.592773091
C          3.169397713     1.515766266    -3.495388828
C          3.892474627     2.052274259    -2.264191152
C          4.083714917     3.192528542    -1.272840396
C          0.809536588     1.373210757    -5.393055679
C         -0.650302296     1.767543863    -5.211669811
7

C          0.491084553     2.788591693    -1.860425411
C         -0.237961302     1.482743837    -1.555426291
C          0.051323612     0.074735095    -1.011871201
C          0.599768281    -1.021794743    -0.102251209
C          1.302768609    -1.685416311     1.074577562
C         -0.427660660     2.979741115    -1.777291725
C          0.319763634     4.298223900    -1.927255284
7

C         -0.655515986    -2.239052114     0.293760686
C         -0.627372366    -3.739418803     0.595611750
C          0.204143138    -4.848653302     1.254627325
C          1.163722359    -5.766205975     2.009508324
C          2.255971593    -6.438597474     2.830733191
C         -1.919708001    -3.292577768    -0.075012975
C         -2.062403160    -2.098753682     0.859840567
7

C          2.592494191     1.732713473    -0.953257694
C          1.747917268     2.883103252    -1.510934651
C          1.424984845     4.086465617    -2.408029667
C          1.376518245     5.244775819    -3.401954357
C          1.695631585     6.301136850    -4.451619564
C          1.990769484     1.678797735    -0.609655540
C          2.742913031     0.420789562    -0.195862694
7

C         -2.419997901     0.068826868     5.036252394
C         -1.389485285     1.079023119     5.528406345
C         -1.715944470     2.423310431     4.869243511
C         -1.608945041     3.304004275     3.626092711
C         -1.306802803     3.916986740     2.265030051
C         -0.903472715    -0.215385689     4.889783916
C         -1.779952255    -0.031233638     3.657955747
7

C          0.888682976    -1.341981335     1.283011262
C          0.206143578    -2.716790581     1.209687828
C         -0.159685835    -1.959571548    -0.068721840
C         -0.536431984    -0.962748593    -1.160133168
C         -0.895594059     0.125923341    -2.162792145
C          1.272554154    -1.658747886     1.001841768
C         -0.035741587    -2.295880530     0.552449681
7

C         -1.520557325     2.805339259     1.719242921
C         -0.339955076     2.424531017     0.829505546
C          0.807579653     2.557406379    -0.186333799
C          1.916231545     2.824471081    -1.202321443
C          2.980072012     3.201312147    -2.224947118
C         -1.461508457     2.339269118     1.861324528
C         -2.504593750     2.786306117     2.877031175
7

C         -6.383001343     2.985745887    -4.167636647
C         -5.420319841     2.323326884    -5.154942627
C         -5.598468975     0.842170564    -5.523454928
C         -5.662522687    -0.623446494    -5.092274789
C         -5.714756448    -2.012317235    -4.469507819
C         -4.400114904     3.039448134    -4.279737284
C         -5.340818595     3.403166964    -3.138547475
